/*--------------------------------*- C++ -*----------------------------------*\
  =========                 |
  \\      /  F ield         | OpenFOAM: The Open Source CFD Toolbox
   \\    /   O peration     | Website:  https://openfoam.org
    \\  /    A nd           | Version:  7
     \\/     M anipulation  |
\*---------------------------------------------------------------------------*/
FoamFile
{
    version          2.0;
    format           ascii;
    class            dictionary;
    location         "constant";
    object           CanteraTorchProperties;
}
// * * * * * * * * * * * * * * * * * * * * * * * * * * * * * * * * * * * * * //

chemistry            on;

CanteraMechanismFile "Okafor25.yaml";

transportModel       "Mix";

odeCoeffs
{
    "relTol"         1e-15;
    "absTol"         1e-24;
}

inertSpecie          "AR";

zeroDReactor
{
    constantProperty "pressure";
}

splittingStrategy    off;

TorchSettings
{
    torch             on;
    GPU               on;
    log               on;
    torchModel        "submission.pt"; 
    inferenceDeltaTime 5e-07;
    frozenTemperature 500;
    coresPerNode      4;
}

loadbalancing
{
    active           true;
    log              false;
    algorithm        allAverage;//headTail;
}


// ************************************************************************* //
