/*--------------------------------*- C++ -*----------------------------------*\
  =========                 |
  \\      /  F ield         | OpenFOAM: The Open Source CFD Toolbox
   \\    /   O peration     | Website:  https://openfoam.org
    \\  /    A nd           | Version:  7
     \\/     M anipulation  |
\*---------------------------------------------------------------------------*/
FoamFile
{
    version         2;
    format          ascii;
    class           dictionary;
    location        "system";
    object          decomposeParDict;
}
// * * * * * * * * * * * * * * * * * * * * * * * * * * * * * * * * * * * * * //

#include "sampleConfigDict"

numberOfSubdomains $numSubdomain;

method          scotch;

simpleCoeffs
{
    n               (13 4 1);
    delta           0.001;
}

engineScotchCoeffs
{
    slidingPatchPairs ( );
    expandSliding   false;
}

hierarchicalCoeffs
{
    n               ( 1 2 2 );
    delta           0.001;
    order           xyz;
}

manualCoeffs
{
    dataFile        ".././constant/cellDist";
}


// ************************************************************************* //
