/*--------------------------------*- C++ -*----------------------------------*\
  =========                 |
  \\      /  F ield         | OpenFOAM: The Open Source CFD Toolbox
   \\    /   O peration     | Website:  https://openfoam.org
    \\  /    A nd           | Version:  7
     \\/     M anipulation  |
\*---------------------------------------------------------------------------*/
FoamFile
{
    version     2.0;
    format      ascii;
    class       dictionary;
    location    "system";
    object      setFieldsDict;
}
// * * * * * * * * * * * * * * * * * * * * * * * * * * * * * * * * * * * * * //

#include "sampleConfigDict"

defaultFieldValues
(
    burntRegionStates
);

regions
(
    boxToCell
    {
        box (0 0.0075 -0.0005) (0.016 0.0085 0.0005);
        fieldValues
        (
            unburntStates
        );
    }
);

// ************************************************************************* //
